Circuit: * D:\MojePliki\Git\PV_DC_driver\simulations\PWM_MPPT\Draft1.asc

Direct Newton iteration for .op point succeeded.

Date: Thu Sep 29 18:02:46 2022
Total elapsed time: 0.040 seconds.

tnom = 27
temp = 27
method = trap
totiter = 40
traniter = 0
tranpoints = 0
accept = 0
rejected = 0
matrix size = 14
fillins = 7
solver = Normal
Matrix Compiler1:      58 opcodes
Matrix Compiler2:     101 opcodes
