Circuit: * D:\MojePliki\Git\PV_DC_driver\simulations\PWM_MPPT\PWM MPPT.asc

WARNING: Node NC_02 is floating.
WARNING: Node NC_03 is floating.
WARNING: Node NC_04 is floating.
WARNING: Node NC_06 is floating.

WARNING: Less than two connections to node NC_01.  This node is used by S2.
WARNING: Less than two connections to node NC_02.  This node is used by S2.
WARNING: Less than two connections to node NC_03.  This node is used by S2.
WARNING: Less than two connections to node NC_04.  This node is used by S2.
WARNING: Less than two connections to node N019.  This node is used by R1.
WARNING: Less than two connections to node NC_05.  This node is used by V1.
WARNING: Less than two connections to node N011.  This node is used by R9.
WARNING: Less than two connections to node NC_06.  This node is used by R13.
Direct Newton iteration failed to find .op point.  (Use ".option noopiter" to skip.)
Starting Gmin stepping
Increasing initial diagonal Gmin to 100
Increasing initial diagonal Gmin to 1000
Gmin = 1000
Gmin = 107.374
Gmin = 11.5292
Gmin = 1.23794
Gmin = 0.132923
Gmin = 0.0142725
Gmin = 0.0015325
Gmin = 0.00016455
Gmin = 1.76685e-005
vernier = 0.5
Gmin = 3.29364e-006
vernier = 0.666667
Gmin = 8.15428e-007
vernier = 0.888888
vernier = 1
Gmin = 1.00195e-007
Gmin = 1.07583e-008
Gmin = 1.15517e-009
Gmin = 1.24035e-010
Gmin = 1.33182e-011
Gmin = 1.43003e-012
Gmin = 1.53548e-013
Gmin = 0
Gmin stepping succeeded in finding the operating point.


Date: Sat Jul 09 15:28:22 2022
Total elapsed time: 8.910 seconds.

tnom = 27
temp = 27
method = modified trap
totiter = 393230
traniter = 392258
tranpoints = 121826
accept = 88715
rejected = 33111
matrix size = 145
fillins = 230
solver = Normal
Thread vector: 19.3/9.1[6] 9.5/4.3[6] 7.6/2.8[6] 0.7/1.8[1]  2592/500
Matrix Compiler1: 25.11 KB object code size  9.3/6.0/[1.0]
Matrix Compiler2: 16.55 KB object code size  1.5/2.9/[0.8]

