Circuit: * D:\MojePliki\Git\PV_DC_driver\simulations\PWM_MPPT\PWM MPPT.asc

WARNING: Node NC_02 is floating.
WARNING: Node NC_03 is floating.
WARNING: Node NC_04 is floating.

WARNING: Less than two connections to node NC_01.  This node is used by S2.
WARNING: Less than two connections to node NC_02.  This node is used by S2.
WARNING: Less than two connections to node NC_03.  This node is used by S2.
WARNING: Less than two connections to node NC_04.  This node is used by S2.
WARNING: Less than two connections to node NC_05.  This node is used by V1.
Direct Newton iteration for .op point succeeded.

Date: Sat Aug 13 19:17:37 2022
Total elapsed time: 2.877 seconds.

tnom = 27
temp = 27
method = modified trap
totiter = 310362
traniter = 310331
tranpoints = 96472
accept = 72784
rejected = 23688
matrix size = 73
fillins = 49
solver = Normal
Thread vector: 7.9/5.1[2] 1.5/2.1[1] 1.1/1.2[1] 0.3/1.1[1]  2592/500
Matrix Compiler1: 4.79 KB object code size  0.9/0.5/[0.2]
Matrix Compiler2: 6.75 KB object code size  0.5/0.9/[0.3]

