Circuit: * D:\MojePliki\Git\PV_DC_driver\simulations\PWM_MPPT\PWM MPPT.asc

WARNING: Less than two connections to node NC_01.  This node is used by V1.
Direct Newton iteration for .op point succeeded.

Date: Sat Jun 18 21:56:48 2022
Total elapsed time: 0.203 seconds.

tnom = 27
temp = 27
method = modified trap
totiter = 121095
traniter = 121063
tranpoints = 59531
accept = 57025
rejected = 2506
matrix size = 15
fillins = 0
solver = Normal
Matrix Compiler1: 560 bytes object code size  0.1/0.1/[0.1]
Matrix Compiler2: 929 bytes object code size  0.1/0.1/[0.1]

