Circuit: * D:\MojePliki\Git\PV_DC_driver\simulations\PWM_MPPT\PWM MPPT.asc

WARNING: Less than two connections to node NC_01.  This node is used by V1.
Direct Newton iteration for .op point succeeded.
.step pwm_duty=10
.step pwm_duty=20
.step pwm_duty=30
.step pwm_duty=40
.step pwm_duty=50
.step pwm_duty=60
.step pwm_duty=70
.step pwm_duty=80
.step pwm_duty=90

Date: Fri Jun 17 19:35:26 2022
Total elapsed time: 1.699 seconds.

tnom = 27
temp = 27
method = modified trap
totiter = 121103
traniter = 121071
tranpoints = 59531
accept = 57025
rejected = 2506
matrix size = 15
fillins = 0
solver = Normal
Matrix Compiler1: 560 bytes object code size  0.1/0.1/[0.1]
Matrix Compiler2: off  [0.1]/0.1/0.1

