Circuit: * D:\MojePliki\Git\PV_DC_driver\simulations\PWM_MPPT\PWM MPPT.asc

WARNING: Node NC_02 is floating.
WARNING: Node NC_03 is floating.
WARNING: Node NC_04 is floating.

WARNING: Less than two connections to node NC_01.  This node is used by S2.
WARNING: Less than two connections to node NC_02.  This node is used by S2.
WARNING: Less than two connections to node NC_03.  This node is used by S2.
WARNING: Less than two connections to node NC_04.  This node is used by S2.
WARNING: Less than two connections to node NC_05.  This node is used by V1.
Direct Newton iteration failed to find .op point.  (Use ".option noopiter" to skip.)
Starting Gmin stepping
Gmin = 10
Gmin = 1.07374
Gmin = 0.115292
Gmin = 0.0123794
Gmin = 0.00132923
Gmin = 0.000142725
Gmin = 1.5325e-005
vernier = 0.5
Gmin = 3.1742e-006
vernier = 0.666667
vernier = 0.888888
Gmin = 7.23345e-007
vernier = 1
Gmin = 8.6905e-008
Gmin = 9.33136e-009
Gmin = 1.00195e-009
Gmin = 1.07583e-010
Gmin = 1.15517e-011
Gmin = 1.24035e-012
Gmin = 1.33182e-013
Gmin = 0
Gmin stepping succeeded in finding the operating point.


Date: Thu Jul 07 22:13:02 2022
Total elapsed time: 11.692 seconds.

tnom = 27
temp = 27
method = modified trap
totiter = 783345
traniter = 782587
tranpoints = 266894
accept = 190820
rejected = 76074
matrix size = 94
fillins = 212
solver = Normal
Thread vector: 12.7/7.2[3] 2.7/2.6[1] 1.6/2.5[1] 0.4/1.0[1]  2592/500
Matrix Compiler1: 23.49 KB object code size  3.0/1.6/[0.9]
Matrix Compiler2: off  [0.9]/1.6/1.3

