Circuit: * D:\MojePliki\Git\PV_DC_driver\simulations\PWM_MPPT\PWM MPPT.asc

WARNING: Node NC_02 is floating.
WARNING: Node NC_03 is floating.
WARNING: Node NC_04 is floating.

WARNING: Less than two connections to node NC_01.  This node is used by S2.
WARNING: Less than two connections to node NC_02.  This node is used by S2.
WARNING: Less than two connections to node NC_03.  This node is used by S2.
WARNING: Less than two connections to node NC_04.  This node is used by S2.
WARNING: Less than two connections to node NC_05.  This node is used by V1.
Direct Newton iteration for .op point succeeded.

Date: Wed Sep 28 19:49:15 2022
Total elapsed time: 1.089 seconds.

tnom = 27
temp = 27
method = modified trap
totiter = 287444
traniter = 287413
tranpoints = 87724
accept = 67445
rejected = 20279
matrix size = 42
fillins = 9
solver = Normal
Matrix Compiler1: 2.49 KB object code size  0.4/0.3/[0.2]
Matrix Compiler2: off  [0.2]/0.4/0.3

