Circuit: * D:\MojePliki\Git\PV_DC_driver\simulations\PWM_NMOS_driver\pwm_nmos_driver.asc

Direct Newton iteration for .op point succeeded.

Date: Tue Aug 30 00:14:53 2022
Total elapsed time: 0.237 seconds.

tnom = 27
temp = 27
method = modified trap
totiter = 11286
traniter = 11252
tranpoints = 2973
accept = 2372
rejected = 601
matrix size = 23
fillins = 10
solver = Normal
Matrix Compiler1: 1.99 KB object code size  0.3/0.2/[0.2]
Matrix Compiler2: 2.00 KB object code size  0.2/0.2/[0.1]

