
**** 05/03/22 15:58:13 ******* PSpice Lite (March 2016) ******* ID# 10813 ****

 PWM RC filter 2


 ****     CIRCUIT DESCRIPTION


******************************************************************************




X1 N_IN P_IN VCC 0 OUT LM324

.LIB "EVAL_TOS.LIB"
.END

ERROR(ORPSIM-15141): Less than 2 connections at node P_IN.

ERROR(ORPSIM-15141): Less than 2 connections at node N_IN.
